$DATA1 SOURCE='HSPICE' VERSION='K-2015.06-SP1 linux64' PARAM_COUNT=0
.TITLE '.title ece423 final project'
 frequnityn       frequnityp       pgain            ngain           
 min_phasen       min_phasep       pm               temper          
 alter#          
    failed           failed           failed           failed       
    failed           failed           failed          27.0000       
 1               
