$DATA1 SOURCE='HSPICE' VERSION='K-2015.06-SP1 linux64' PARAM_COUNT=0
.TITLE '* # file name: /nfs/stak/students/l/lovetr/cadence/simulation/'
 frequnityn       frequnityp       pgain            ngain           
 min_phasen       min_phasep       pm               temper          
 alter#          
  5.241e+07        5.241e+07         66.7056          66.7056       
   78.2502        -101.7498          78.2502         100.0000       
 1               
