$DATA1 SOURCE='HSPICE' VERSION='K-2015.06-SP1 linux64' PARAM_COUNT=0
.TITLE '* # file name: /nfs/stak/students/l/lovetr/cadence/simulation/'
 frequnityn       frequnityp       pgain            ngain           
 min_phasen       min_phasep       pm               temper          
 alter#          
  5.396e+07        5.396e+07         66.0970          66.0970       
   80.7093         -99.2907          80.7093          27.0000       
 1               
