Using: /usr/local/apps/synopsys/current_hspice/hspice/linux64/hspice ./ms/opamp.sp
 ****** HSPICE -- K-2015.06-SP1 linux64 (Aug 23 2015) ******                    
  Copyright (c) 1986 - 2016 by Synopsys, Inc. All Rights Reserved.              
  This software and the associated documentation are proprietary
  to Synopsys, Inc. This software may only be used in accordance
  with the terms and conditions of a written license agreement with
  Synopsys, Inc. All other use, reproduction, or distribution of
  this software is strictly prohibited.
  Input File: ./ms/opamp.sp                                                     
  Command line options: /usr/local/apps/synopsys/current_hspice/hspice/linux64/hspice ./ms/opamp.sp
 lic:  
 lic: FLEXlm: v11.2.1 
 lic: USER:   lovetr               HOSTNAME: kec1130-13.engr.oregonstate.edu 
 lic: HOSTID: 8cdcd44e75fe         PID:      8792 
 lic: Using FLEXlm license file: 
 lic: 7188@linlic.engr.oregonstate.edu 
 lic: Checkout 1 hspice 
 lic: License/Maintenance for hspice will expire on 10-aug-2016/2015.06 
 lic: 1(in_use)/50(total) FLOATING license(s) on SERVER 7188@linlic.engr.oregonstate.edu 
 lic:   
 Init: read install configuration file: /usr/local/apps/synopsys/current_hspice/hspice/meta.cfg
1****** HSPICE -- K-2015.06-SP1 linux64 (Aug 23 2015) ******                    
 ******  
 .title ece423 final project

 ****** mos   model parameters tnom=  25.000 temp=  25.000 ******
 ***************************************************************************
 ***        model parameters  model name:   0:cmosn    model type:nmos   ***
 ***************************************************************************

   *** general parameters ***
    deriv=   0.           

   ***  level 49  model parameters  ***

      hspver=    2006.03               level=         49         
     version=        3.1            paramchk=          0         
      apwarn=          1                lite=          0         
      vgslim=          0             binUnit=          1         
      capMod=          2               xpart=        0.4         
      mobMod=          1              nqsMod=          0         
      stiMod=          0                 elm=          5         
    sfvtflag=          0                 tox=    5.8e-09 meter   
          xj=      1e-07 meter       binflag=          0         
        lmin=          0 meter          lmax=          0 meter   
        wmin=          0 meter          wmax=          0 meter   
        lref=          0 meter          wref=          0 meter   
        lint=4.39347e-09 meter          wint= 2.1265e-09 meter   
       lmult=          1               wmult=          1         
          ll=          0                 lln=          1         
          lw=          0                 lwn=          1         
         lwl=          0                  wl=          0         
         wln=          1                  ww=          0         
         wwn=          1                 wwl=          0         
         dwg=-3.40903e-09 m/V             dwb=2.79484e-09 m/V^1/2 
          xl=     -3e-08                  xw=          0         
          a0=    1.23186                 ags=   0.304333 V^-1    
          b0=6.67749e-08 meter            b1=      5e-06 meter   
        keta=0.000851805 V^-1           voff=  -0.102605 V       
       ngate=          0 cm^-3           vbx=          0 V       
         vbm=         -3 V                xt=   1.55e-07 meter   
        vth0=   0.430894 V               nch= 2.3549e+17 cm^-3   
        nsub=      6e+16 cm^-3           nlx= 1.4659e-07 meter   
      gamma1=          0 V^-1/2       gamma2=          0 V^-1/2  
          k1=   0.351943 V^1/2            k2=  0.0298493         
          k3=      0.001                 k3b=  0.0592323 V^-1    
          w0=      1e-05 meter          dvt0=  0.0183405         
        dvt1= 0.00489758                dvt2= -0.0252658 V^-1    
       dvt0w=          0 meter^-1      dvt1w=          0 meter^-1
       dvt2w=          0 V^-1           dsub= 0.00304547         
        eta0= 0.00348737                etab=0.000455799 V^-1    
          u0=    455.303 cm^2/V/sec         ua=5.22359e-10 m/V     
          ub=1.10471e-18 (m/V)^2          uc=3.28789e-11 V^-1    
        vsat=     105099 m/sec            a1=          0 v^-1    
          a2=          1               delta=       0.01 V       
        rdsw=    509.568 ohm-um         prwg=  0.0227558 V^-1    
        prwb=     -0.001 V^-1/2           wr=          1         
        pclm=    1.04463             pdiblc1=   0.144195         
     pdiblc2=0.000451338             pdiblcb=-2.81676e-05 V^-1    
      pscbe1=1.76111e+10 V/m          pscbe2=3.77292e-09 V/m     
       drout=   0.469872                pvag=  0.0361824         
     nfactor=   0.134489                cdsc= 0.00152751 f/m^2   
       cdscb=          0 f/V/m^2       cdscd=          0 f/V/m^2 
         cit=          0 f/m^2        alpha0=          0 m/V     
       beta0=         30 V               dlc=4.39347e-09 meter   
         dwc= 2.1265e-09 meter           clc=      1e-07 meter   
         cle=        0.6                cgso=   6.27e-10 f/m     
        cgdo=   6.27e-10 f/m            cgbo=          0 f/m     
        cgsl=          0 f/m            cgdl=          0 f/m     
      ckappa=        0.6                  cf=9.33852e-11 f/m     
        tnom=     300.15 K               kt1=      -0.11 V       
        kt1l=          0                 kt2=      0.022         
         ute=       -1.5                 ua1=   4.31e-09 m/V     
         ub1=  -7.61e-18 (m/V)^2         uc1=   -5.6e-11 m/V^2   
          at=      33000 m/s             prt=          0         
         using Berkeley noise model       noiMod=          1         
        noia=      1e+20                noib=      50000         
        noic=   -1.4e-12                  em=    4.1e+07         
          ef=          1                  af=          1         
          kf=          0              gdsnoi=-1.23457e-29         
         using Hspice diodes            using ACM 
         acm=         0                 hdif=         0 meter    
        ldif=         0 meter             js=         0 amp/m^2  
         jsw=         0 amp/m            xti=         0          
           n=         1                   cj=0.00191866 f/m^2    
          mj=  0.472173                   pb=  0.978405 V        
        cjsw=4.44159e-10 f/m             mjsw=  0.287112          
         php=  0.978405 V               pbsw (not used)           
      cjgate=4.44159e-10 f/m            cjswg (not used)           
       mjswg (not used)                 pbswg (not used)           
       lketa=-0.00614406               wketa=0.000751269         
       pvth0= 0.00134299                 pk2=-0.00314072         
       prdsw=   -61.8357         
 ***************************************************************************
 ***        model parameters  model name:   0:cmosp    model type:pmos   ***
 ***************************************************************************

   *** general parameters ***
    deriv=   0.           

   ***  level 49  model parameters  ***

      hspver=    2006.03               level=         49         
     version=        3.1            paramchk=          0         
      apwarn=          1                lite=          0         
      vgslim=          0             binUnit=          1         
      capMod=          2               xpart=        0.4         
      mobMod=          1              nqsMod=          0         
      stiMod=          0                 elm=          5         
    sfvtflag=          0                 tox=    5.8e-09 meter   
          xj=      1e-07 meter       binflag=          0         
        lmin=          0 meter          lmax=          0 meter   
        wmin=          0 meter          wmax=          0 meter   
        lref=          0 meter          wref=          0 meter   
        lint=8.71907e-09 meter          wint=2.74881e-08 meter   
       lmult=          1               wmult=          1         
          ll=          0                 lln=          1         
          lw=          0                 lwn=          1         
         lwl=          0                  wl=          0         
         wln=          1                  ww=          0         
         wwn=          1                 wwl=          0         
         dwg=-4.08759e-08 m/V             dwb=2.03201e-08 m/V^1/2 
          xl=     -3e-08                  xw=          0         
          a0=    1.38264                 ags=   0.419298 V^-1    
          b0= 2.8441e-06 meter            b1=      5e-06 meter   
        keta=  0.0208695 V^-1           voff=      -0.15 V       
       ngate=          0 cm^-3           vbx=          0 V       
         vbm=         -3 V                xt=   1.55e-07 meter   
        vth0=  -0.615873 V               nch= 4.1589e+17 cm^-3   
        nsub=      6e+16 cm^-3           nlx=      1e-09 meter   
      gamma1=          0 V^-1/2       gamma2=          0 V^-1/2  
          k1=   0.459838 V^1/2            k2=  0.0399415         
          k3=          0                 k3b=    8.74107 V^-1    
          w0=      1e-06 meter          dvt0=   0.624949         
        dvt1=   0.203296                dvt2= -0.0513763 V^-1    
       dvt0w=          0 meter^-1      dvt1w=          0 meter^-1
       dvt2w=          0 V^-1           dsub=    1.02871         
        eta0=   0.324124                etab=    -0.1842 V^-1    
          u0=    158.675 cm^2/V/sec         ua=2.20002e-10 m/V     
          ub=4.45742e-18 (m/V)^2          uc=1.02138e-10 V^-1    
        vsat=     185064 m/sec            a1=          0 v^-1    
          a2=          1               delta=       0.01 V       
        rdsw=    968.546 ohm-um         prwg=  -0.102648 V^-1    
        prwb=     -0.325 V^-1/2           wr=          1         
        pclm=    5.26546             pdiblc1= 0.00422834         
     pdiblc2= 0.00120452             pdiblcb= 0.00237525 V^-1    
      pscbe1=3.01146e+10 V/m          pscbe2=3.03704e-07 V/m     
       drout=          0                pvag=    8.95643         
     nfactor=    1.54605                cdsc=0.000141332 f/m^2   
       cdscb=          0 f/V/m^2       cdscd=          0 f/V/m^2 
         cit=          0 f/m^2        alpha0=          0 m/V     
       beta0=         30 V               dlc=8.71907e-09 meter   
         dwc=2.74881e-08 meter           clc=      1e-07 meter   
         cle=        0.6                cgso=   5.59e-10 f/m     
        cgdo=   5.59e-10 f/m            cgbo=          0 f/m     
        cgsl=          0 f/m            cgdl=          0 f/m     
      ckappa=        0.6                  cf=9.33852e-11 f/m     
        tnom=     300.15 K               kt1=      -0.11 V       
        kt1l=          0                 kt2=      0.022         
         ute=       -1.5                 ua1=   4.31e-09 m/V     
         ub1=  -7.61e-18 (m/V)^2         uc1=   -5.6e-11 m/V^2   
          at=      33000 m/s             prt=          0         
         using Berkeley noise model       noiMod=          1         
        noia=    9.9e+18                noib=       2400         
        noic=    1.4e-12                  em=    4.1e+07         
          ef=          1                  af=          1         
          kf=          0              gdsnoi=-1.23457e-29         
         using Hspice diodes            using ACM 
         acm=         0                 hdif=         0 meter    
        ldif=         0 meter             js=         0 amp/m^2  
         jsw=         0 amp/m            xti=         0          
           n=         1                   cj=0.00188286 f/m^2    
          mj=  0.467979                   pb=  0.989132 V        
        cjsw=3.67186e-10 f/m             mjsw=  0.356213          
         php=  0.989132 V               pbsw (not used)           
      cjgate=3.67186e-10 f/m            cjswg (not used)           
       mjswg (not used)                 pbswg (not used)           
       lketa= -0.0232426               lvsat=     125700         
       wketa= 0.00410049               pvth0= 0.00392376         
         pk2= 0.00206176               prdsw=    15.3953         
 

  

  **warning** the following singular supplies were terminated to 1 meg resistor 
          supply       node1            node2
(./ms/opamp.sp:106)v3                      0:vss              defined in subckt 0                     0:0                defined in subckt 0               
      
 **info** set option symb=1 internally to help for convergence.
 *****************************************************************
 ******  option summary
 ******
 runlvl  = 3         bypass  = 2         
 **info** dc convergence successful at GMINDC ramping method 
1****** HSPICE -- K-2015.06-SP1 linux64 (Aug 23 2015) ******                    
 ******  
 .title ece423 final project

 ****** operating point information tnom=  25.000 temp=  27.000 ******
 ****** operating point status is all       simulation time is     0.     
    node    =voltage      node    =voltage      node    =voltage

 +0:a       =   1.8379  0:b       =   1.8955  0:d10     = 322.4018m
 +0:d11     = 322.4018m 0:d3      =   1.8598  0:d4      =   1.8598 
 +0:d51s5   = 163.4433m 0:d8s10   = 148.9986m 0:d9s11   = 148.9986m
 +0:dt1     = 656.5312m 0:dt2     =   1.4870  0:dt3     =   1.2612 
 +0:idiff   = 644.8725m 0:idiff1  = 681.0387m 0:idiff2  = 681.0387m
 +0:iref    =   1.8842  0:sb1     = 802.6419m 0:sb2     = 941.5870m
 +0:sooch   =   1.5981  0:vcm_ref =   1.2500  0:vdd     =   2.5000 
 +0:vfold1  =   2.0965  0:vfold2  =   2.0965  0:vin1    =   1.2500 
 +0:vin2    =   1.2500  0:voutn   =   1.2964  0:voutp   =   1.2964 
 +0:vss     =   0.      0:vtest   =   1.2500 


 **** voltage sources

 subckt                                                                    
 element  0:v1       0:v2       0:v3       0:v4       0:v5       0:v6      
  volts      1.2500     2.5000     0.         1.2500     1.2500     0.     
  current   -1.2500n   -4.1471m    0.        -1.2500n    0.        -1.2500n
  power      1.5625n   10.3679m    0.         1.5625n    0.         0.     

     total voltage source power dissipation=   10.3679m       watts



 **** current sources

 subckt             
 element  0:i1      
  volts      1.8842 
  current  250.0000u
  power   -471.0412u


     total current source power dissipation=-471.0412u       watts

 **** resistors

 subckt                        
 element  0:rf1      0:rf2     
  r value    1.0000g    1.0000g
  v drop     1.2500     1.2500 
  current    1.2500n    1.2500n
  power      1.5625n    1.5625n



 **** mosfets


 subckt                                                                    
 element  0:m0       0:m1       0:m2       0:m3       0:m4       0:m34     
 model    0:cmosp    0:cmosn    0:cmosn    0:cmosp    0:cmosp    0:cmosp   
 region     Saturati   Saturati   Saturati   Saturati   Saturati   Saturati
  id      -250.0000u  409.8403u  409.8403u -400.5781u -400.5781u -400.5781u
  ibs        0.         0.         0.         0.         0.         0.     
  ibd        0.         0.         0.         0.         0.         0.     
  vgs     -615.8354m  605.1275m  605.1275m -609.5452m -609.5452m -598.6657m
  vds     -615.8354m    1.4516     1.4516  -236.6597m -236.6597m -563.4553m
  vbs        0.         0.         0.         0.         0.         0.     
  vth     -513.6416m  510.3075m  510.3075m -518.7812m -518.7812m -514.4741m
  vdsat   -138.2272m  105.3098m  105.3098m -131.0558m -131.0558m -126.7545m
  vod     -102.1938m   94.8200m   94.8200m  -90.7640m  -90.7640m  -84.1916m
  beta      28.9193m   59.1438m   59.1438m   57.8397m   57.8397m   58.0626m
  gam eff  384.2682m  297.1965m  297.1965m  384.4091m  384.4091m  384.4091m
  gm         2.8738m    5.4687m    5.4687m    4.7941m    4.7941m    4.9353m
  gds       88.8767u  172.5645u  172.5645u  198.8684u  198.8684u  149.1572u
  gmb      700.6385u    1.1940m    1.1940m    1.1762m    1.1762m    1.2088m
  cdtot    162.3317f  111.7344f  111.7344f  352.9080f  352.9080f  327.5978f
  cgtot    158.8944f  117.1342f  117.1342f  316.0531f  316.0531f  314.0388f
  cstot    227.6523f  170.4883f  170.4883f  453.4244f  453.4244f  451.9523f
  cbtot    274.8708f  193.7556f  193.7556f  577.0757f  577.0757f  552.2561f
  cgs      108.9622f   79.8379f   79.8379f  215.6567f  215.6567f  213.1176f
  cgd       45.9243f   35.5597f   35.5597f   92.2496f   92.2496f   91.9366f



 subckt                                                                    
 element  0:m35      0:m5       0:m51      0:m6       0:m7       0:m8      
 model    0:cmosp    0:cmosn    0:cmosn    0:cmosp    0:cmosp    0:cmosn   
 region     Saturati   Saturati   Saturati   Saturati   Saturati   Saturati
  id      -400.5781u  819.6805u  819.6805u -810.4183u -810.4183u  400.5781u
  ibs        0.         0.         0.         0.         0.         0.     
  ibd        0.         0.         0.         0.         0.         0.     
  vgs     -598.6657m  656.5312m  639.1986m -604.5232m -604.5232m  656.5312m
  vds     -563.4553m  163.4433m  481.4293m -403.4977m -403.4977m  148.9986m
  vbs        0.         0.         0.         0.         0.         0.     
  vth     -514.4741m  523.5203m  520.2423m -516.6534m -516.6534m  523.7360m
  vdsat   -126.7545m  128.7005m  119.7782m -129.3986m -129.3986m  128.5466m
  vod      -84.1916m  133.0108m  118.9563m  -87.8699m  -87.8699m  132.7951m
  beta      58.0626m  117.2950m  117.6190m  115.9101m  115.9101m   58.6435m
  gam eff  384.4091m  296.9071m  296.9071m  384.4794m  384.4794m  297.1965m
  gm         4.9353m    9.7836m   10.5572m    9.8454m    9.8454m    4.7250m
  gds      149.1572u    1.1277m  432.1910u  319.6239u  319.6239u  684.6440u
  gmb        1.2088m    2.1162m    2.2863m    2.4156m    2.4156m    1.0221m
  cdtot    327.5978f  277.5517f  256.3384f  677.1202f  677.1202f  139.9867f
  cgtot    314.0388f  240.7149f  237.7438f  630.0509f  630.0509f  120.5665f
  cstot    451.9523f  343.9788f  342.9085f  905.0948f  905.0948f  172.2503f
  cbtot    552.2561f  438.6598f  419.6791f    1.1258p    1.1258p  220.4597f
  cgs      213.1176f  165.7820f  163.9121f  428.9307f  428.9307f   82.8346f
  cgd       91.9366f   72.8796f   71.1312f  183.9729f  183.9729f   36.7400f



 subckt                                                                    
 element  0:m9       0:m10      0:m11      0:m32      0:m33      0:m16     
 model    0:cmosn    0:cmosn    0:cmosn    0:cmosn    0:cmosn    0:cmosp   
 region     Saturati   Saturati   Saturati   Saturati   Saturati   Saturati
  id       400.5781u  400.5781u  400.5781u  400.5781u  400.5781u -383.8542u
  ibs        0.         0.         0.         0.         0.         0.     
  ibd        0.         0.         0.         0.         0.         0.     
  vgs      656.5312m  653.6432m  653.6432m  619.1852m  619.1852m   -1.0130 
  vds      148.9986m  173.4032m  173.4032m  973.9854m  973.9854m   -1.0130 
  vbs        0.         0.         0.         0.         0.         0.     
  vth      523.7360m  523.4844m  523.4844m  515.2314m  515.2314m -611.5429m
  vdsat    128.5466m  126.8514m  126.8514m  110.6354m  110.6354m -356.2674m
  vod      132.7951m  130.1588m  130.1588m  103.9538m  103.9538m -401.5000m
  beta      58.6435m   58.6681m   58.6681m   58.9992m   58.9992m    5.2602m
  gam eff  297.1965m  297.1965m  297.1965m  297.1965m  297.1965m  384.4904m
  gm         4.7250m    4.8818m    4.8818m    5.2977m    5.2977m    1.6656m
  gds      684.6440u  478.6747u  478.6747u  183.7253u  183.7253u   17.6169u
  gmb        1.0221m    1.0547m    1.0547m    1.1518m    1.1518m  480.2988u
  cdtot    139.9867f  138.4459f  138.4459f  118.4671f  118.4671f  152.3324f
  cgtot    120.5665f  120.0863f  120.0863f  117.8642f  117.8642f  405.6520f
  cstot    172.2503f  172.1912f  172.1912f  171.0209f  171.0209f  388.2301f
  cbtot    220.4597f  219.5340f  219.5340f  200.4756f  200.4756f  325.3232f
  cgs       82.8346f   82.7383f   82.7383f   80.7290f   80.7290f  353.5411f
  cgd       36.7400f   36.2529f   36.2529f   35.5537f   35.5537f   46.8595f



 subckt                                                                    
 element  0:m17      0:m37      0:m38      0:m12      0:m13      0:m14     
 model    0:cmosn    0:cmosp    0:cmosn    0:cmosp    0:cmosn    0:cmosn   
 region     Saturati   Saturati   Saturati   Saturati     Linear     Linear
  id       383.8542u -353.3810u  353.3810u -275.5384u  275.5384u  275.5384u
  ibs        0.         0.         0.         0.         0.         0.     
  ibd        0.         0.         0.         0.         0.         0.     
  vgs      656.5312m   -1.2388   656.5312m -615.8354m  795.4763m  941.5870m
  vds        1.4870    -1.2388     1.2612  -901.8818m  138.9451m  146.1107m
  vbs        0.         0.         0.         0.         0.         0.     
  vth      510.0769m -615.8770m  512.4044m -509.8716m  455.0262m  441.9973m
  vdsat    137.3811m -535.7763m  135.8556m -140.8006m  300.1386m  434.1934m
  vod      146.4543m -622.9462m  144.1268m -105.9638m  340.4501m  499.5897m
  beta      29.3814m    2.1018m   29.3711m   28.9553m    8.5571m    4.9159m
  gam eff  297.7752m  384.5241m  297.7752m  384.2682m  296.9597m  296.8184m
  gm         4.0878m  987.1596u    3.8569m    3.1187m    1.0377m  608.7743u
  gds      136.9033u    7.3692u  133.0687u   89.8697u    1.3984m    1.5074m
  gmb      888.4763u  305.2186u  837.0615u  756.7294u  234.1577u  143.6789u
  cdtot     55.8731f  147.8898f   57.3118f  154.5283f   97.5128f  131.3130f
  cgtot     60.0062f  802.5889f   59.9676f  159.1911f  131.3426f  204.5845f
  cstot     86.6147f  651.8504f   86.5822f  227.8251f  118.7010f  147.5095f
  cbtot     97.1366f  419.4691f   98.5779f  267.0951f  124.2739f  137.3439f
  cgs       41.7400f  749.4519f   41.6834f  109.2118f   90.1965f  131.1580f
  cgd       17.7634f   47.0529f   17.7641f   45.9130f   42.4986f   77.0782f



 subckt                                                                    
 element  0:m15      0:m36      0:m18      0:m19      0:m20      0:m21     
 model    0:cmosn    0:cmosn    0:cmosp    0:cmosp    0:cmosn    0:cmosn   
 region     Saturati   Saturati   Saturati   Saturati   Saturati   Saturati
  id       275.5384u  275.5384u -826.8092u -436.7286u  413.4046u  218.3643u
  ibs        0.         0.         0.         0.         0.         0.     
  ibd        0.         0.         0.         0.         0.         0.     
  vgs      656.5312m  656.5312m -662.0901m -604.5232m  615.3485m  568.9613m
  vds      656.5312m  656.5312m -662.0901m -604.5232m    1.1569     1.2144 
  vbs        0.         0.         0.         0.         0.         0.     
  vth      518.6376m  518.6376m -513.1742m -513.9329m  513.3461m  512.7526m
  vdsat    131.8000m  131.8000m -172.2943m -130.9393m  109.4790m   85.2610m
  vod      137.8936m  137.8936m -148.9160m  -90.5904m  102.0024m   56.2086m
  beta      29.3430m   29.3430m   57.2169m   57.9990m   59.0444m   59.3293m
  gam eff  297.7752m  297.7752m  384.4091m  384.4091m  297.1965m  297.1965m
  gm         3.2280m    3.2280m    7.8901m    5.2509m    5.4480m    3.3744m
  gds      125.6747u  125.6747u  267.4607u  158.7451u  182.0654u  107.5391u
  gmb      697.7205u  697.7205u    1.9136m    1.2843m    1.1863m  736.9513u
  cdtot     62.4481f   62.4481f  321.4977f  324.9973f  115.6381f  114.8382f
  cgtot     59.8625f   59.8625f  322.7965f  315.5412f  117.7163f  112.6108f
  cstot     86.4904f   86.4904f  458.7873f  453.1174f  170.9160f  167.0996f
  cbtot    103.7171f  103.7171f  545.8241f  549.6403f  197.6492f  196.9247f
  cgs       41.5260f   41.5260f  224.3921f  215.0055f   80.5538f   74.1628f
  cgd       17.7697f   17.7697f   91.8244f   91.9137f   35.5543f   35.6066f



 subckt                                              
 element  0:m22      0:m23      0:m24      0:m25     
 model    0:cmosn    0:cmosn    0:cmosn    0:cmosn   
 region     Saturati   Saturati   Saturati   Saturati
  id       218.3643u  413.4046u  631.7689u  631.7689u
  ibs        0.         0.         0.         0.     
  ibd        0.         0.         0.         0.     
  vgs      568.9613m  615.3485m  681.0387m  681.0387m
  vds        1.2144     1.1569   681.0387m  681.0387m
  vbs        0.         0.         0.         0.     
  vth      512.7526m  513.3461m  451.0001m  451.0001m
  vdsat     85.2610m  109.4790m  211.1421m  211.1421m
  vod       56.2086m  102.0024m  230.0386m  230.0386m
  beta      59.3293m   59.0444m   27.3542m   27.3542m
  gam eff  297.1965m  297.1965m  296.7370m  296.7370m
  gm         3.3744m    5.4480m    5.3997m    5.3997m
  gds      107.5391u  182.0654u   81.7103u   81.7103u
  gmb      736.9513u    1.1863m    1.1615m    1.1615m
  cdtot    114.8382f  115.6381f  185.1621f  185.1621f
  cgtot    112.6108f  117.7163f  337.9833f  337.9833f
  cstot    167.0996f  170.9160f  358.4800f  358.4800f
  cbtot    196.9247f  197.6492f  341.3747f  341.3747f
  cgs       74.1628f   80.5538f  281.1896f  281.1896f
  cgd       35.6066f   35.5543f   51.8876f   51.8876f



 ******
 .title ece423 final project

 ****** ac analysis tnom=  25.000 temp=  27.000 ******
 x

 freq         volt phase 
             b           
    1.00000k  -90.5794   
    1.02329k  -90.5929   
    1.04713k  -90.6067   
    1.07152k  -90.6208   
    1.09648k  -90.6353   
    1.12202k  -90.6500   
    1.14815k  -90.6652   
    1.17490k  -90.6807   
    1.20226k  -90.6965   
    1.23027k  -90.7128   
    1.25893k  -90.7294   
    1.28825k  -90.7463   
    1.31826k  -90.7637   
    1.34896k  -90.7815   
    1.38038k  -90.7997   
    1.41254k  -90.8183   
    1.44544k  -90.8374   
    1.47911k  -90.8569   
    1.51356k  -90.8769   
    1.54882k  -90.8973   
    1.58489k  -90.9182   
    1.62181k  -90.9396   
    1.65959k  -90.9614   
    1.69824k  -90.9838   
    1.73780k  -91.0067   
    1.77828k  -91.0302   
    1.81970k  -91.0542   
    1.86209k  -91.0787   
    1.90546k  -91.1039   
    1.94984k  -91.1296   
    1.99526k  -91.1559   
    2.04174k  -91.1828   
    2.08930k  -91.2103   
    2.13796k  -91.2385   
    2.18776k  -91.2673   
    2.23872k  -91.2969   
    2.29087k  -91.3270   
    2.34423k  -91.3579   
    2.39883k  -91.3896   
    2.45471k  -91.4219   
    2.51189k  -91.4550   
    2.57040k  -91.4889   
    2.63027k  -91.5236   
    2.69153k  -91.5590   
    2.75423k  -91.5953   
    2.81838k  -91.6325   
    2.88403k  -91.6705   
    2.95121k  -91.7094   
    3.01995k  -91.7492   
    3.09030k  -91.7899   
    3.16228k  -91.8315   
    3.23594k  -91.8742   
    3.31131k  -91.9178   
    3.38844k  -91.9624   
    3.46737k  -92.0081   
    3.54813k  -92.0548   
    3.63078k  -92.1027   
    3.71535k  -92.1516   
    3.80189k  -92.2017   
    3.89045k  -92.2529   
    3.98107k  -92.3053   
    4.07380k  -92.3590   
    4.16869k  -92.4138   
    4.26580k  -92.4700   
    4.36516k  -92.5275   
    4.46684k  -92.5862   
    4.57088k  -92.6464   
    4.67735k  -92.7080   
    4.78630k  -92.7709   
    4.89779k  -92.8354   
    5.01187k  -92.9013   
    5.12861k  -92.9688   
    5.24807k  -93.0378   
    5.37032k  -93.1084   
    5.49541k  -93.1807   
    5.62341k  -93.2546   
    5.75440k  -93.3302   
    5.88844k  -93.4076   
    6.02560k  -93.4868   
    6.16595k  -93.5678   
    6.30957k  -93.6507   
    6.45654k  -93.7355   
    6.60693k  -93.8223   
    6.76083k  -93.9110   
    6.91831k  -94.0018   
    7.07946k  -94.0947   
    7.24436k  -94.1898   
    7.41310k  -94.2870   
    7.58578k  -94.3865   
    7.76247k  -94.4882   
    7.94328k  -94.5924   
    8.12831k  -94.6988   
    8.31764k  -94.8078   
    8.51138k  -94.9192   
    8.70964k  -95.0332   
    8.91251k  -95.1499   
    9.12011k  -95.2692   
    9.33254k  -95.3912   
    9.54993k  -95.5160   
    9.77237k  -95.6437   
   10.00000k  -95.7742   
   10.23293k  -95.9078   
   10.47129k  -96.0444   
   10.71519k  -96.1841   
   10.96478k  -96.3270   
   11.22018k  -96.4732   
   11.48154k  -96.6226   
   11.74898k  -96.7755   
   12.02264k  -96.9318   
   12.30269k  -97.0916   
   12.58925k  -97.2551   
   12.88250k  -97.4222   
   13.18257k  -97.5931   
   13.48963k  -97.7678   
   13.80384k  -97.9465   
   14.12538k  -98.1291   
   14.45440k  -98.3159   
   14.79108k  -98.5068   
   15.13561k  -98.7019   
   15.48817k  -98.9014   
   15.84893k  -99.1054   
   16.21810k  -99.3138   
   16.59587k  -99.5268   
   16.98244k  -99.7445   
   17.37801k  -99.9670   
   17.78279k -100.1944   
   18.19701k -100.4267   
   18.62087k -100.6641   
   19.05461k -100.9066   
   19.49845k -101.1544   
   19.95262k -101.4075   
   20.41738k -101.6660   
   20.89296k -101.9300   
   21.37962k -102.1997   
   21.87762k -102.4751   
   22.38721k -102.7563   
   22.90868k -103.0434   
   23.44229k -103.3365   
   23.98833k -103.6358   
   24.54709k -103.9412   
   25.11886k -104.2528   
   25.70396k -104.5709   
   26.30268k -104.8954   
   26.91535k -105.2265   
   27.54229k -105.5642   
   28.18383k -105.9086   
   28.84032k -106.2599   
   29.51209k -106.6180   
   30.19952k -106.9831   
   30.90295k -107.3552   
   31.62278k -107.7345   
   32.35937k -108.1209   
   33.11311k -108.5146   
   33.88442k -108.9156   
   34.67369k -109.3240   
   35.48134k -109.7398   
   36.30781k -110.1630   
   37.15352k -110.5938   
   38.01894k -111.0321   
   38.90451k -111.4779   
   39.81072k -111.9313   
   40.73803k -112.3924   
   41.68694k -112.8610   
   42.65795k -113.3372   
   43.65158k -113.8211   
   44.66836k -114.3125   
   45.70882k -114.8115   
   46.77351k -115.3179   
   47.86301k -115.8319   
   48.97788k -116.3532   
   50.11872k -116.8819   
   51.28614k -117.4178   
   52.48075k -117.9609   
   53.70318k -118.5111   
   54.95409k -119.0682   
   56.23413k -119.6322   
   57.54399k -120.2029   
   58.88437k -120.7801   
   60.25596k -121.3637   
   61.65950k -121.9535   
   63.09573k -122.5493   
   64.56542k -123.1510   
   66.06934k -123.7583   
   67.60830k -124.3710   
   69.18310k -124.9888   
   70.79458k -125.6116   
   72.44360k -126.2391   
   74.13102k -126.8709   
   75.85776k -127.5069   
   77.62471k -128.1467   
   79.43282k -128.7900   
   81.28305k -129.4366   
   83.17638k -130.0861   
   85.11380k -130.7382   
   87.09636k -131.3926   
   89.12509k -132.0489   
   91.20108k -132.7068   
   93.32543k -133.3660   
   95.49926k -134.0261   
   97.72372k -134.6868   
  100.00000k -135.3477   
  102.32930k -136.0085   
  104.71285k -136.6688   
  107.15193k -137.3282   
  109.64782k -137.9866   
  112.20185k -138.6434   
  114.81536k -139.2983   
  117.48976k -139.9511   
  120.22644k -140.6014   
  123.02688k -141.2489   
  125.89254k -141.8932   
  128.82496k -142.5341   
  131.82567k -143.1712   
  134.89629k -143.8043   
  138.03843k -144.4331   
  141.25375k -145.0574   
  144.54398k -145.6768   
  147.91084k -146.2911   
  151.35612k -146.9001   
  154.88166k -147.5036   
  158.48932k -148.1013   
  162.18101k -148.6931   
  165.95869k -149.2788   
  169.82437k -149.8582   
  173.78008k -150.4311   
  177.82794k -150.9974   
  181.97009k -151.5569   
  186.20871k -152.1096   
  190.54607k -152.6553   
  194.98446k -153.1939   
  199.52623k -153.7254   
  204.17379k -154.2495   
  208.92961k -154.7664   
  213.79621k -155.2758   
  218.77616k -155.7779   
  223.87211k -156.2725   
  229.08677k -156.7595   
  234.42288k -157.2391   
  239.88329k -157.7112   
  245.47089k -158.1757   
  251.18864k -158.6327   
  257.03958k -159.0822   
  263.02680k -159.5242   
  269.15348k -159.9588   
  275.42287k -160.3860   
  281.83829k -160.8058   
  288.40315k -161.2182   
  295.12092k -161.6234   
  301.99517k -162.0214   
  309.02954k -162.4122   
  316.22777k -162.7959   
  323.59366k -163.1726   
  331.13112k -163.5424   
  338.84416k -163.9052   
  346.73685k -164.2613   
  354.81339k -164.6107   
  363.07805k -164.9535   
  371.53523k -165.2897   
  380.18940k -165.6195   
  389.04514k -165.9429   
  398.10717k -166.2601   
  407.38028k -166.5711   
  416.86938k -166.8761   
  426.57952k -167.1750   
  436.51583k -167.4681   
  446.68359k -167.7554   
  457.08819k -168.0370   
  467.73514k -168.3131   
  478.63009k -168.5836   
  489.77882k -168.8488   
  501.18723k -169.1086   
  512.86138k -169.3633   
  524.80746k -169.6129   
  537.03180k -169.8575   
  549.54087k -170.0971   
  562.34133k -170.3320   
  575.43994k -170.5622   
  588.84366k -170.7878   
  602.55959k -171.0088   
  616.59500k -171.2254   
  630.95734k -171.4377   
  645.65423k -171.6458   
  660.69345k -171.8497   
  676.08298k -172.0495   
  691.83097k -172.2454   
  707.94578k -172.4373   
  724.43596k -172.6255   
  741.31024k -172.8100   
  758.57758k -172.9909   
  776.24712k -173.1682   
  794.32823k -173.3420   
  812.83052k -173.5125   
  831.76377k -173.6797   
  851.13804k -173.8436   
  870.96359k -174.0044   
  891.25094k -174.1622   
  912.01084k -174.3170   
  933.25430k -174.4688   
  954.99259k -174.6178   
  977.23722k -174.7641   
 1000.00000k -174.9077   
    1.02329x -175.0486   
    1.04713x -175.1870   
    1.07152x -175.3229   
    1.09648x -175.4564   
    1.12202x -175.5875   
    1.14815x -175.7164   
    1.17490x -175.8430   
    1.20226x -175.9675   
    1.23027x -176.0898   
    1.25893x -176.2102   
    1.28825x -176.3286   
    1.31826x -176.4450   
    1.34896x -176.5596   
    1.38038x -176.6725   
    1.41254x -176.7836   
    1.44544x -176.8930   
    1.47911x -177.0007   
    1.51356x -177.1070   
    1.54882x -177.2117   
    1.58489x -177.3149   
    1.62181x -177.4168   
    1.65959x -177.5173   
    1.69824x -177.6165   
    1.73780x -177.7144   
    1.77828x -177.8112   
    1.81970x -177.9068   
    1.86209x -178.0013   
    1.90546x -178.0948   
    1.94984x -178.1872   
    1.99526x -178.2788   
    2.04174x -178.3694   
    2.08930x -178.4591   
    2.13796x -178.5481   
    2.18776x -178.6363   
    2.23872x -178.7237   
    2.29087x -178.8105   
    2.34423x -178.8967   
    2.39883x -178.9823   
    2.45471x -179.0674   
    2.51189x -179.1519   
    2.57040x -179.2361   
    2.63027x -179.3198   
    2.69153x -179.4032   
    2.75423x -179.4862   
    2.81838x -179.5690   
    2.88403x -179.6516   
    2.95121x -179.7340   
    3.01995x -179.8162   
    3.09030x -179.8984   
    3.16228x -179.9804   
    3.23594x  179.9375   
    3.31131x  179.8553   
    3.38844x  179.7731   
    3.46737x  179.6908   
    3.54813x  179.6083   
    3.63078x  179.5256   
    3.71535x  179.4427   
    3.80189x  179.3594   
    3.89045x  179.2758   
    3.98107x  179.1918   
    4.07380x  179.1074   
    4.16869x  179.0225   
    4.26580x  178.9371   
    4.36516x  178.8512   
    4.46684x  178.7646   
    4.57088x  178.6774   
    4.67735x  178.5894   
    4.78630x  178.5008   
    4.89779x  178.4113   
    5.01187x  178.3210   
    5.12861x  178.2298   
    5.24807x  178.1376   
    5.37032x  178.0445   
    5.49541x  177.9503   
    5.62341x  177.8551   
    5.75440x  177.7587   
    5.88844x  177.6611   
    6.02560x  177.5623   
    6.16595x  177.4622   
    6.30957x  177.3607   
    6.45654x  177.2579   
    6.60693x  177.1536   
    6.76083x  177.0478   
    6.91831x  176.9404   
    7.07946x  176.8314   
    7.24436x  176.7207   
    7.41310x  176.6083   
    7.58578x  176.4941   
    7.76247x  176.3780   
    7.94328x  176.2600   
    8.12831x  176.1401   
    8.31764x  176.0181   
    8.51138x  175.8939   
    8.70964x  175.7676   
    8.91251x  175.6391   
    9.12011x  175.5083   
    9.33254x  175.3751   
    9.54993x  175.2394   
    9.77237x  175.1012   
   10.00000x  174.9604   
   10.23293x  174.8170   
   10.47129x  174.6708   
   10.71519x  174.5218   
   10.96478x  174.3699   
   11.22018x  174.2150   
   11.48154x  174.0571   
   11.74898x  173.8960   
   12.02264x  173.7317   
   12.30269x  173.5641   
   12.58925x  173.3930   
   12.88250x  173.2185   
   13.18257x  173.0404   
   13.48963x  172.8586   
   13.80384x  172.6731   
   14.12538x  172.4836   
   14.45440x  172.2902   
   14.79108x  172.0928   
   15.13561x  171.8911   
   15.48817x  171.6852   
   15.84893x  171.4749   
   16.21810x  171.2601   
   16.59587x  171.0406   
   16.98244x  170.8165   
   17.37801x  170.5875   
   17.78279x  170.3535   
   18.19701x  170.1145   
   18.62087x  169.8702   
   19.05461x  169.6206   
   19.49845x  169.3656   
   19.95262x  169.1049   
   20.41738x  168.8385   
   20.89296x  168.5662   
   21.37962x  168.2880   
   21.87762x  168.0035   
   22.38721x  167.7127   
   22.90868x  167.4155   
   23.44229x  167.1117   
   23.98833x  166.8011   
   24.54709x  166.4835   
   25.11886x  166.1589   
   25.70396x  165.8270   
   26.30268x  165.4877   
   26.91535x  165.1407   
   27.54229x  164.7860   
   28.18383x  164.4233   
   28.84032x  164.0525   
   29.51209x  163.6732   
   30.19952x  163.2855   
   30.90295x  162.8890   
   31.62278x  162.4836   
   32.35937x  162.0690   
   33.11311x  161.6450   
   33.88442x  161.2115   
   34.67369x  160.7682   
   35.48134x  160.3148   
   36.30781x  159.8512   
   37.15352x  159.3770   
   38.01894x  158.8922   
   38.90451x  158.3963   
   39.81072x  157.8892   
   40.73803x  157.3706   
   41.68694x  156.8402   
   42.65795x  156.2978   
   43.65158x  155.7431   
   44.66836x  155.1758   
   45.70882x  154.5956   
   46.77351x  154.0021   
   47.86301x  153.3952   
   48.97788x  152.7745   
   50.11872x  152.1396   
   51.28614x  151.4902   
   52.48075x  150.8261   
   53.70318x  150.1467   
   54.95409x  149.4518   
   56.23413x  148.7410   
   57.54399x  148.0139   
   58.88437x  147.2701   
   60.25596x  146.5092   
   61.65950x  145.7307   
   63.09573x  144.9343   
   64.56542x  144.1194   
   66.06934x  143.2855   
   67.60830x  142.4322   
   69.18310x  141.5590   
   70.79458x  140.6652   
   72.44360x  139.7503   
   74.13102x  138.8137   
   75.85776x  137.8547   
   77.62471x  136.8728   
   79.43282x  135.8670   
   81.28305x  134.8368   
   83.17638x  133.7812   
   85.11380x  132.6995   
   87.09636x  131.5906   
   89.12509x  130.4536   
   91.20108x  129.2875   
   93.32543x  128.0910   
   95.49926x  126.8630   
   97.72372x  125.6021   
  100.00000x  124.3068   
  102.32930x  122.9756   
  104.71285x  121.6067   
  107.15193x  120.1983   
  109.64782x  118.7483   
  112.20185x  117.2544   
  114.81536x  115.7143   
  117.48976x  114.1252   
  120.22644x  112.4842   
  123.02688x  110.7879   
  125.89254x  109.0330   
  128.82496x  107.2153   
  131.82567x  105.3308   
  134.89629x  103.3746   
  138.03843x  101.3418   
  141.25375x   99.2267   
  144.54398x   97.0234   
  147.91084x   94.7253   
  151.35612x   92.3257   
  154.88166x   89.8171   
  158.48932x   87.1921   
  162.18101x   84.4430   
  165.95869x   81.5619   
  169.82437x   78.5414   
  173.78008x   75.3749   
  177.82794x   72.0567   
  181.97009x   68.5830   
  186.20871x   64.9521   
  190.54607x   61.1659   
  194.98446x   57.2298   
  199.52623x   53.1541   
  204.17379x   48.9541   
  208.92961x   44.6504   
  213.79621x   40.2689   
  218.77616x   35.8399   
  223.87211x   31.3968   
  229.08677x   26.9749   
  234.42288x   22.6092   
  239.88329x   18.3328   
  245.47089x   14.1755   
  251.18864x   10.1622   
  257.03958x    6.3128   
  263.02680x    2.6416   
  269.15348x -842.1367m  
  275.42287x   -4.1338   
  281.83829x   -7.2327   
  288.40315x  -10.1414   
  295.12092x  -12.8645   
  301.99517x  -15.4087   
  309.02954x  -17.7818   
  316.22777x  -19.9923   
  323.59366x  -22.0491   
  331.13112x  -23.9612   
  338.84416x  -25.7375   
  346.73685x  -27.3868   
  354.81339x  -28.9176   
  363.07805x  -30.3381   
  371.53523x  -31.6562   
  380.18940x  -32.8793   
  389.04514x  -34.0147   
  398.10717x  -35.0692   
  407.38028x  -36.0493   
  416.86938x  -36.9613   
  426.57952x  -37.8111   
  436.51583x  -38.6044   
  446.68359x  -39.3464   
  457.08819x  -40.0424   
  467.73514x  -40.6972   
  478.63009x  -41.3152   
  489.77882x  -41.9009   
  501.18723x  -42.4583   
  512.86138x  -42.9910   
  524.80746x  -43.5026   
  537.03180x  -43.9963   
  549.54087x  -44.4750   
  562.34133x  -44.9414   
  575.43994x  -45.3979   
  588.84366x  -45.8467   
  602.55959x  -46.2897   
  616.59500x  -46.7285   
  630.95734x  -47.1645   
  645.65423x  -47.5990   
  660.69345x  -48.0329   
  676.08298x  -48.4672   
  691.83097x  -48.9023   
  707.94578x  -49.3387   
  724.43596x  -49.7768   
  741.31024x  -50.2167   
  758.57758x  -50.6585   
  776.24712x  -51.1020   
  794.32823x  -51.5471   
  812.83052x  -51.9936   
  831.76377x  -52.4410   
  851.13804x  -52.8891   
  870.96359x  -53.3373   
  891.25094x  -53.7851   
  912.01084x  -54.2320   
  933.25430x  -54.6774   
  954.99259x  -55.1206   
  977.23722x  -55.5610   
 1000.00000x  -55.9980   
y
 frequnityn=  99.5329x
 frequnityp= 112.4336x
 pgain=  60.5771     at=   1.0233k
             from=  10.0000     to= 112.4336x
 ngain=  60.5771     at=   1.0233k
             from=  10.0000     to=  99.5329x
 min_phasen=-100.2101     at=  99.5329x
             from=   1.0000     to=  99.5329x
 min_phasep=  89.1197     at= 112.4336x
             from=   1.0000     to= 112.4336x
 pm= 269.1197 

          ***** job concluded
1****** HSPICE -- K-2015.06-SP1 linux64 (Aug 23 2015) ******                    
 ******  
 .title ece423 final project

 ****** job statistics summary tnom=  25.000 temp=  27.000 ******
  
  
 ******  Machine Information  ******
 CPU:
 model name	: Intel(R) Xeon(R) CPU E3-1231 v3 @ 3.40GHz
 cpu MHz	: 3401.000
  
 OS:
 Linux version 2.6.32-573.12.1.el6.x86_64 (mockbuild@c6b8.bsys.dev.centos.org) (gcc version 4.4.7 20120313 (Red Hat 4.4.7-16) (GCC) ) #1 SMP Tue Dec 15 21:19:08 UTC 2015


  ******  HSPICE Threads Information  ******

  Command Line Threads Count :     1
  Available CPU Count        :     8
  Actual Threads Count       :     1


  ******  Circuit Statistics  ******
  # nodes       =      30 # elements   =      49
  # resistors   =       3 # capacitors =       5 # inductors   =       0
  # mutual_inds =       0 # vccs       =       0 # vcvs        =       0
  # cccs        =       0 # ccvs       =       0 # volt_srcs   =       6
  # curr_srcs   =       1 # diodes     =       0 # bjts        =       0
  # jfets       =       0 # mosfets    =      34 # U elements  =       0
  # T elements  =       0 # W elements =       0 # B elements  =       0
  # S elements  =       0 # P elements =       0 # va device   =       0
  # vector_srcs =       0 # N elements =       0


  ******  Runtime Statistics (seconds)  ******

  analysis           time    # points   tot. iter  conv.iter
  op point           0.02           1         253
  dc sweep           0.38        3001        6258
  ac analysis        0.02         601         601
  readin             0.01
  errchk             0.01
  setup              0.00
  output             0.00


           peak memory used        202.02 megabytes
           total cpu time            0.48 seconds
           total elapsed time        0.44 seconds
           job started at     00:27:44 03/11/2016
           job ended   at     00:27:44 03/11/2016


 lic: Release hspice token(s) 
 lic: total license checkout elapse time:        0.15(s)
