$DATA1 SOURCE='HSPICE' VERSION='K-2015.06-SP1 linux64' PARAM_COUNT=0
.TITLE '.title ece423 final project'
 frequnityn       frequnityp       pgain            ngain           
 min_phasen       min_phasep       pm               temper          
 alter#          
  1.056e+08        1.147e+08         60.7233          60.7233       
  -97.4810          88.6827         268.6827         -40.0000       
 1               
